Circuit: * Z:\home\Grobuntu_home\groben\Repos\LabBenchPowerSupply\Simulations\MosfetDriverAntiLatchup_P.asc

WARNING: Less than two connections to node 5V.  This node is used by V1.
Direct Newton iteration for .op point succeeded.

Date: Sun Mar 29 19:05:44 2020
Total elapsed time: 0.294 seconds.

tnom = 27
temp = 27
method = modified trap
totiter = 17475
traniter = 17452
tranpoints = 6222
accept = 5217
rejected = 1005
matrix size = 33
fillins = 4
solver = Normal
Matrix Compiler1: 2.27 KB object code size  0.4/0.3/[0.2]
Matrix Compiler2: off  [0.2]/0.4/0.3

