Circuit: * Z:\home\Grobuntu_home\groben\Repos\LabBenchPowerSupply\Simulations\MosfetDriverAntiLatchup.asc

Direct Newton iteration for .op point succeeded.

Date: Thu Mar 26 13:42:38 2020
Total elapsed time: 0.161 seconds.

tnom = 27
temp = 27
method = modified trap
totiter = 9331
traniter = 9314
tranpoints = 4006
accept = 3428
rejected = 578
matrix size = 26
fillins = 6
solver = Normal
Matrix Compiler1: 1.98 KB object code size  0.3/0.2/[0.1]
Matrix Compiler2: 2.25 KB object code size  0.2/0.3/[0.2]

