Circuit: * Z:\home\Grobuntu_home\groben\Repos\LabBenchPowerSupply\Simulations\MosfetDriverAntiLatchup.asc

Direct Newton iteration for .op point succeeded.

Date: Sun Mar 29 19:06:22 2020
Total elapsed time: 0.123 seconds.

tnom = 27
temp = 27
method = modified trap
totiter = 9331
traniter = 9314
tranpoints = 4006
accept = 3428
rejected = 578
matrix size = 26
fillins = 6
solver = Normal
Matrix Compiler1: 1.98 KB object code size  0.4/0.3/[0.1]
Matrix Compiler2: off  [0.2]/0.3/0.4

