Circuit: * Z:\home\Grobuntu_home\groben\Repos\LabBenchPowerSupply\Simulations\MosfetDriverAntiLatchup_N.asc

WARNING: Less than two connections to node 5V.  This node is used by V1.
.OP point found by inspection.

Date: Sun Mar 29 19:27:41 2020
Total elapsed time: 3.846 seconds.

tnom = 27
temp = 27
method = modified trap
totiter = 805545
traniter = 805545
tranpoints = 266040
accept = 195324
rejected = 70716
matrix size = 33
fillins = 6
solver = Normal
Matrix Compiler1: 2.36 KB object code size  0.5/0.3/[0.2]
Matrix Compiler2: 2.74 KB object code size  0.2/0.3/[0.2]

